@<TRIPOS>MOLECULE
Water1
3 2 1 0 0
SMALL
USER_CHARGES

@<TRIPOS>ATOM
      1 O       0.0000    0.0000    0.0000 O.3    1 WATER     0.0000
      2 H1      0.0000    0.7570    0.5860 H      1 WATER     0.0000
      3 H2      0.0000   -0.7570    0.5860 H      1 WATER     0.0000

@<TRIPOS>BOND
     1    1    2    1
     2    1    3    1
